#!/sbin/sh

#################
# Initialization
#################

umask 022

# echo before loading util_functions
ui_print() { echo "$1"; }

require_new_magisk() {
  ui_print "*******************************"
  ui_print " Please install Magisk v20.4+! "
  ui_print "*******************************"
  exit 1
}

grep_prop() {
  PROP="$1"
  shift
  FILES="$@"

  [ -z "$FILES" ] && FILES="/system/build.prop /system_ext/etc/build.prop /vendor/build.prop /vendor/odm/etc/build.prop /product/etc/build.prop"
  grep -m1 "^$PROP=" $FILES 2>/dev/null | cut -d= -f2- | head -n 1
}

# Function to proxy between multiple property value prefixes
# TODO: Miss-checks some of the time FIX: (service.sh first_api_level)
get_property() {
  PROP="$1"
  shift
  FILES="$@"

  PROPERTY_PREFIXES="ro ro.board ro.system ro.vendor ro.product ro.product.product ro.product.bootimage ro.product.vendor ro.product.odm ro.product.system ro.product.system_ext ro.product.system_ext"
  for PREFIX in $PROPERTY_PREFIXES; do
    value=$(grep_prop "$PREFIX.$PROP" "$FILES")
    [ -n "$value" ] && echo "$value" && return
  done
}

#########################
# Load util_functions.sh
#########################

OUTFD=$2
ZIPFILE=$3

[ -f /data/adb/magisk/util_functions.sh ] || require_new_magisk
. /data/adb/magisk/util_functions.sh
[ $MAGISK_VER_CODE -lt 20400 ] && require_new_magisk

# Remove comments from files and place them, add blank line to end if not already present
for i in $(find "$MODPATH" -type f -name "*.sh" -o -name "*.prop" -o -name "*.rule"); do
  [ -f "$i" ] && {
    sed -i -e "/^#/d" -e "/^ *$/d" "$i"
    [ "$(tail -1 "$i")" ] && echo "" >>"$i"
  } || continue
done

install_module
exit 0
