#!/sbin/sh

##################
# Initialization #
##################

umask 022

# echo before loading util_functions
ui_print() { echo "$1"; }

require_new_magisk() {
  ui_print "*******************************************"
  ui_print " ! Warning: Please install Magisk v20.4+ !"
  ui_print "*******************************************"
  exit 1
}

# Function that remove comments from files and place them, add blank line to end if not already present
remove_comments() {
  for i in $(find "$MODPATH" -type f -name "*.sh" -o -name "*.prop" -o -name "*.rule"); do
    [ -f "$i" ] && {
      sed -i -e "/^#/d" -e "/^ *$/d" "$i"
      [ "$(tail -1 "$i")" ] && echo "" >>"$i"
    } || continue
  done
}

##########################
# Load util_functions.sh #
##########################

OUTFD=$2
ZIPFILE=$3

[ -f /data/adb/magisk/util_functions.sh ] || require_new_magisk
. /data/adb/magisk/util_functions.sh
[ $MAGISK_VER_CODE -lt 20400 ] && require_new_magisk

install_module
# remove_comments

#############
# OverlayFS #
#############

OVERLAY_IMAGE_EXTRA=0     # number of kb need to be added to overlay.img
OVERLAY_IMAGE_SHRINK=true # shrink overlay.img or not?

# Only use OverlayFS if Magisk_OverlayFS is installed
if [ -f "/data/adb/modules/magisk_overlayfs/util_functions.sh" ] &&
  /data/adb/modules/magisk_overlayfs/overlayfs_system --test; then
  ui_print "- Added support for OverlayFS"
  . /data/adb/modules/magisk_overlayfs/util_functions.sh
  support_overlayfs && rm -rf "$MODPATH"/system
fi

exit 0
